Version 4
SHEET 1 980 680
WIRE 704 -208 624 -208
WIRE 704 -80 704 -208
WIRE 704 -80 624 -80
WIRE 624 -48 624 -80
WIRE 704 -48 704 -80
WIRE -80 0 -80 -32
WIRE -32 0 -80 0
WIRE 64 0 48 0
WIRE 176 0 176 -16
WIRE 176 0 64 0
WIRE 288 0 176 0
WIRE 288 32 288 0
WIRE 704 80 704 32
WIRE 704 80 688 80
WIRE 752 80 704 80
WIRE 896 80 896 32
WIRE 896 80 816 80
WIRE 64 96 64 0
WIRE -80 112 -80 0
WIRE 288 128 288 112
WIRE 416 128 416 80
WIRE 416 128 288 128
WIRE 464 128 416 128
WIRE 624 128 624 32
WIRE 624 128 528 128
WIRE 896 128 896 80
WIRE 288 144 288 128
WIRE 416 160 416 128
WIRE 704 176 688 176
WIRE 624 208 624 128
WIRE 704 208 704 176
WIRE 656 288 624 288
WIRE 704 288 656 288
WIRE 64 336 64 160
WIRE 288 336 288 224
WIRE 656 336 656 288
WIRE 896 336 896 208
WIRE -80 352 -80 192
FLAG -80 352 0
FLAG -80 -32 Vg
FLAG 656 336 0
FLAG 896 336 0
FLAG 624 -128 0
FLAG 416 80 DAC_low
FLAG 896 32 OUTPUT
FLAG 288 336 0
FLAG 64 336 0
FLAG 176 -16 DAC
SYMBOL voltage -80 96 R0
WINDOW 3 -70 83 Left 2
WINDOW 123 -90 52 Left 2
WINDOW 39 0 0 Left 2
SYMATTR InstName V1
SYMATTR Value ""
SYMATTR Value2 AC 5
SYMBOL res -48 16 R270
WINDOW 0 32 56 VTop 2
WINDOW 3 0 56 VBottom 2
SYMATTR InstName R1
SYMATTR Value 3.9k
SYMBOL res 272 16 R0
SYMATTR InstName R2
SYMATTR Value 22k
SYMBOL res 272 128 R0
SYMATTR InstName R3
SYMATTR Value 1k
SYMBOL cap 464 144 R270
WINDOW 0 32 32 VTop 2
WINDOW 3 0 32 VBottom 2
SYMATTR InstName C2
SYMATTR Value 20µ
SYMBOL res 640 48 R180
WINDOW 0 36 76 Left 2
WINDOW 3 36 40 Left 2
SYMATTR InstName R4
SYMATTR Value 100k
SYMBOL res 640 304 R180
WINDOW 0 36 76 Left 2
WINDOW 3 36 40 Left 2
SYMATTR InstName R5
SYMATTR Value 10k
SYMBOL res 720 48 R180
WINDOW 0 36 76 Left 2
WINDOW 3 36 40 Left 2
SYMATTR InstName R6
SYMATTR Value 10k
SYMBOL res 720 304 R180
WINDOW 0 36 76 Left 2
WINDOW 3 36 40 Left 2
SYMATTR InstName R7
SYMATTR Value 1k
SYMBOL npn 624 80 R0
SYMATTR InstName Q1
SYMBOL res 880 112 R0
SYMATTR InstName R8
SYMATTR Value 100k
SYMBOL voltage 624 -224 R0
WINDOW 0 -57 16 Left 2
WINDOW 3 -61 98 Left 2
WINDOW 123 0 0 Left 2
WINDOW 39 0 0 Left 2
SYMATTR InstName V2
SYMATTR Value 12
SYMBOL cap 752 96 R270
WINDOW 0 32 32 VTop 2
WINDOW 3 0 32 VBottom 2
SYMATTR InstName C3
SYMATTR Value 20µ
SYMBOL cap 48 96 R0
SYMATTR InstName C1
SYMATTR Value 10n
TEXT -402 -200 Left 2 !.ac dec 10 1 100k
TEXT -160 -104 Left 2 ;pwm dac with low pass filter
TEXT 224 -104 Left 2 ;limit current/voltage
LINE Normal 96 -80 -128 -80 2
LINE Normal 96 -80 96 -80 2
LINE Normal 448 -80 224 -80 2
